optran: no such command available in ngspice

Compatibility modes selected: hs a

Warning: m=xx on .subckt line will override multiplier m hierarchy!

Warning: redefinition of .subckt sky130_fd_pr__pnp_05v5_w0p68l0p68, ignored
Warning: redefinition of .subckt sky130_fd_pr__model__parasitic__res_po, ignored
Warning: redefinition of .subckt sky130_fd_pr__res_xhigh_po, ignored
Warning: redefinition of .subckt sky130_fd_pr__res_high_po, ignored
Warning: redefinition of .subckt sky130_fd_pr__res_xhigh_po_0p35, ignored
Warning: redefinition of .subckt sky130_fd_pr__res_xhigh_po_0p69, ignored
Warning: redefinition of .subckt sky130_fd_pr__res_xhigh_po_1p41, ignored
Warning: redefinition of .subckt sky130_fd_pr__res_xhigh_po_2p85, ignored
Warning: redefinition of .subckt sky130_fd_pr__res_xhigh_po_5p73, ignored
Warning: redefinition of .subckt sky130_fd_pr__res_xhigh_po__base, ignored
Warning: redefinition of .subckt sky130_fd_pr__res_high_po_0p35, ignored
Warning: redefinition of .subckt sky130_fd_pr__res_high_po_0p69, ignored
Warning: redefinition of .subckt sky130_fd_pr__res_high_po_1p41, ignored
Warning: redefinition of .subckt sky130_fd_pr__res_high_po_2p85, ignored
Warning: redefinition of .subckt sky130_fd_pr__res_high_po_5p73, ignored
Warning: redefinition of .subckt sky130_fd_pr__res_generic_po, ignored
Warning: redefinition of .subckt sky130_fd_pr__res_generic_nd, ignored
Warning: redefinition of .subckt sky130_fd_pr__res_generic_pd, ignored

Circuit: * /home/santhosh.ldc20/esim-workspace/dff/dff.cir

option SCALE: Scale is set to 1e-06 for instance and model parameters
Reducing trtol to 1 for xspice 'A' devices
Doing analysis at TEMP = 27.000000 and TNOM = 27.000000

Warning: include: has no value, DC 0 assumed
Warning: v1: no DC value, transient time 0 value used
Warning: v2: no DC value, transient time 0 value used
=============santh_inverter : New Iteration===========
Instance : 0

Inside foo before eval.....
a=0
y=0

Inside foo after eval.....
a=0
y=1
=============santh_transmission : New Iteration===========
Instance : 0

Inside foo before eval.....
a=0
y=0

Inside foo after eval.....
a=0
y=0
=============santh_inverter : New Iteration===========
Instance : 0

Inside foo before eval.....
a=0
y=1

Inside foo after eval.....
a=0
y=1
=============santh_transmission : New Iteration===========
Instance : 0

Inside foo before eval.....
a=0
y=0

Inside foo after eval.....
a=0
y=0
=============santh_transmission : New Iteration===========
Instance : 0

Inside foo before eval.....
a=0
y=0

Inside foo after eval.....
a=1
y=1
=============santh_inverter : New Iteration===========
Instance : 0

Inside foo before eval.....
a=0
y=1

Inside foo after eval.....
a=1
y=0
=============santh_transmission : New Iteration===========
Instance : 0

Inside foo before eval.....
a=1
y=1

Inside foo after eval.....
a=1
y=1
=============santh_transmission : New Iteration===========
Instance : 0

Inside foo before eval.....
a=1
y=1

Inside foo after eval.....
a=1
y=1
=============santh_transmission : New Iteration===========
Instance : 0

Inside foo before eval.....
a=1
y=1

Inside foo after eval.....
a=1
y=1
=============santh_transmission : New Iteration===========
Instance : 0

Inside foo before eval.....
a=1
y=1

Inside foo after eval.....
a=1
y=1
=============santh_transmission : New Iteration===========
Instance : 0

Inside foo before eval.....
a=1
y=1

Inside foo after eval.....
a=1
y=1
=============santh_transmission : New Iteration===========
Instance : 0

Inside foo before eval.....
a=1
y=1

Inside foo after eval.....
a=1
y=1
=============santh_transmission : New Iteration===========
Instance : 0

Inside foo before eval.....
a=1
y=1

Inside foo after eval.....
a=1
y=1
=============santh_transmission : New Iteration===========
Instance : 0

Inside foo before eval.....
a=1
y=1

Inside foo after eval.....
a=1
y=1
=============santh_transmission : New Iteration===========
Instance : 0

Inside foo before eval.....
a=1
y=1

Inside foo after eval.....
a=1
y=1
=============santh_transmission : New Iteration===========
Instance : 0

Inside foo before eval.....
a=1
y=1

Inside foo after eval.....
a=1
y=1
=============santh_transmission : New Iteration===========
Instance : 0

Inside foo before eval.....
a=1
y=1

Inside foo after eval.....
a=1
y=1
=============santh_transmission : New Iteration===========
Instance : 0

Inside foo before eval.....
a=1
y=1

Inside foo after eval.....
a=1
y=1
=============santh_transmission : New Iteration===========
Instance : 0

Inside foo before eval.....
a=1
y=1

Inside foo after eval.....
a=1
y=1
=============santh_transmission : New Iteration===========
Instance : 0

Inside foo before eval.....
a=1
y=1

Inside foo after eval.....
a=1
y=1
=============santh_transmission : New Iteration===========
Instance : 0

Inside foo before eval.....
a=1
y=1

Inside foo after eval.....
a=1
y=1
=============santh_transmission : New Iteration===========
Instance : 0

Inside foo before eval.....
a=1
y=1

Inside foo after eval.....
a=1
y=1
=============santh_transmission : New Iteration===========
Instance : 0

Inside foo before eval.....
a=1
y=1

Inside foo after eval.....
a=1
y=1
=============santh_transmission : New Iteration===========
Instance : 0

Inside foo before eval.....
a=1
y=1

Inside foo after eval.....
a=1
y=1
=============santh_transmission : New Iteration===========
Instance : 0

Inside foo before eval.....
a=1
y=1

Inside foo after eval.....
a=1
y=1
=============santh_transmission : New Iteration===========
Instance : 0

Inside foo before eval.....
a=1
y=1

Inside foo after eval.....
a=1
y=1
=============santh_transmission : New Iteration===========
Instance : 0

Inside foo before eval.....
a=1
y=1

Inside foo after eval.....
a=1
y=1
=============santh_transmission : New Iteration===========
Instance : 0

Inside foo before eval.....
a=1
y=1

Inside foo after eval.....
a=1
y=1
=============santh_transmission : New Iteration===========
Instance : 0

Inside foo before eval.....
a=1
y=1

Inside foo after eval.....
a=1
y=1
=============santh_transmission : New Iteration===========
Instance : 0

Inside foo before eval.....
a=1
y=1

Inside foo after eval.....
a=1
y=1
=============santh_transmission : New Iteration===========
Instance : 0

Inside foo before eval.....
a=1
y=1

Inside foo after eval.....
a=1
y=1
=============santh_transmission : New Iteration===========
Instance : 0

Inside foo before eval.....
a=1
y=1

Inside foo after eval.....
a=1
y=1
=============santh_inverter : New Iteration===========
Instance : 0

Inside foo before eval.....
a=1
y=0

Inside foo after eval.....
a=1
y=0
=============santh_transmission : New Iteration===========
Instance : 0

Inside foo before eval.....
a=1
y=1

Inside foo after eval.....
a=1
y=1
=============santh_transmission : New Iteration===========
Instance : 0

Inside foo before eval.....
a=1
y=1

Inside foo after eval.....
a=1
y=1
=============santh_inverter : New Iteration===========
Instance : 0

Inside foo before eval.....
a=1
y=0

Inside foo after eval.....
a=1
y=0
=============santh_inverter : New Iteration===========
Instance : 0

Inside foo before eval.....
a=1
y=0

Inside foo after eval.....
a=0
y=1
=============santh_transmission : New Iteration===========
Instance : 0

Inside foo before eval.....
a=1
y=1

Inside foo after eval.....
a=1
y=1
=============santh_transmission : New Iteration===========
Instance : 0

Inside foo before eval.....
a=1
y=1

Inside foo after eval.....
a=1
y=1
=============santh_transmission : New Iteration===========
Instance : 0

Inside foo before eval.....
a=1
y=1

Inside foo after eval.....
a=0
y=0
=============santh_transmission : New Iteration===========
Instance : 0

Inside foo before eval.....
a=0
y=0

Inside foo after eval.....
a=1
y=1
=============santh_transmission : New Iteration===========
Instance : 0

Inside foo before eval.....
a=1
y=1

Inside foo after eval.....
a=0
y=0
=============santh_transmission : New Iteration===========
Instance : 0

Inside foo before eval.....
a=0
y=0

Inside foo after eval.....
a=1
y=1
=============santh_transmission : New Iteration===========
Instance : 0

Inside foo before eval.....
a=1
y=1

Inside foo after eval.....
a=0
y=0
=============santh_transmission : New Iteration===========
Instance : 0

Inside foo before eval.....
a=0
y=0

Inside foo after eval.....
a=1
y=1
=============santh_transmission : New Iteration===========
Instance : 0

Inside foo before eval.....
a=1
y=1

Inside foo after eval.....
a=0
y=0
=============santh_transmission : New Iteration===========
Instance : 0

Inside foo before eval.....
a=0
y=0

Inside foo after eval.....
a=1
y=1
=============santh_transmission : New Iteration===========
Instance : 0

Inside foo before eval.....
a=1
y=1

Inside foo after eval.....
a=0
y=0
=============santh_transmission : New Iteration===========
Instance : 0

Inside foo before eval.....
a=0
y=0

Inside foo after eval.....
a=1
y=1
=============santh_inverter : New Iteration===========
Instance : 0

Inside foo before eval.....
a=0
y=1

Inside foo after eval.....
a=1
y=0
=============santh_transmission : New Iteration===========
Instance : 0

Inside foo before eval.....
a=1
y=1

Inside foo after eval.....
a=0
y=0
=============santh_transmission : New Iteration===========
Instance : 0

Inside foo before eval.....
a=0
y=0

Inside foo after eval.....
a=1
y=1
=============santh_transmission : New Iteration===========
Instance : 0

Inside foo before eval.....
a=1
y=1

Inside foo after eval.....
a=1
y=1
=============santh_transmission : New Iteration===========
Instance : 0

Inside foo before eval.....
a=1
y=1

Inside foo after eval.....
a=1
y=1
=============santh_transmission : New Iteration===========
Instance : 0

Inside foo before eval.....
a=1
y=1

Inside foo after eval.....
a=1
y=1
=============santh_transmission : New Iteration===========
Instance : 0

Inside foo before eval.....
a=1
y=1

Inside foo after eval.....
a=1
y=1
=============santh_transmission : New Iteration===========
Instance : 0

Inside foo before eval.....
a=1
y=1

Inside foo after eval.....
a=1
y=1
=============santh_transmission : New Iteration===========
Instance : 0

Inside foo before eval.....
a=1
y=1

Inside foo after eval.....
a=1
y=1
=============santh_transmission : New Iteration===========
Instance : 0

Inside foo before eval.....
a=1
y=1

Inside foo after eval.....
a=1
y=1
=============santh_transmission : New Iteration===========
Instance : 0

Inside foo before eval.....
a=1
y=1

Inside foo after eval.....
a=1
y=1
=============santh_transmission : New Iteration===========
Instance : 0

Inside foo before eval.....
a=1
y=1

Inside foo after eval.....
a=1
y=1
=============santh_transmission : New Iteration===========
Instance : 0

Inside foo before eval.....
a=1
y=1

Inside foo after eval.....
a=1
y=1
=============santh_transmission : New Iteration===========
Instance : 0

Inside foo before eval.....
a=1
y=1

Inside foo after eval.....
a=1
y=1
=============santh_transmission : New Iteration===========
Instance : 0

Inside foo before eval.....
a=1
y=1

Inside foo after eval.....
a=1
y=1
=============santh_transmission : New Iteration===========
Instance : 0

Inside foo before eval.....
a=1
y=1

Inside foo after eval.....
a=1
y=1
=============santh_transmission : New Iteration===========
Instance : 0

Inside foo before eval.....
a=1
y=1

Inside foo after eval.....
a=1
y=1
=============santh_transmission : New Iteration===========
Instance : 0

Inside foo before eval.....
a=1
y=1

Inside foo after eval.....
a=1
y=1
=============santh_transmission : New Iteration===========
Instance : 0

Inside foo before eval.....
a=1
y=1

Inside foo after eval.....
a=1
y=1
=============santh_transmission : New Iteration===========
Instance : 0

Inside foo before eval.....
a=1
y=1

Inside foo after eval.....
a=1
y=1
=============santh_transmission : New Iteration===========
Instance : 0

Inside foo before eval.....
a=1
y=1

Inside foo after eval.....
a=1
y=1
=============santh_transmission : New Iteration===========
Instance : 0

Inside foo before eval.....
a=1
y=1

Inside foo after eval.....
a=1
y=1
=============santh_transmission : New Iteration===========
Instance : 0

Inside foo before eval.....
a=1
y=1

Inside foo after eval.....
a=1
y=1
=============santh_transmission : New Iteration===========
Instance : 0

Inside foo before eval.....
a=1
y=1

Inside foo after eval.....
a=1
y=1
=============santh_transmission : New Iteration===========
Instance : 0

Inside foo before eval.....
a=1
y=1

Inside foo after eval.....
a=1
y=1
=============santh_transmission : New Iteration===========
Instance : 0

Inside foo before eval.....
a=1
y=1

Inside foo after eval.....
a=1
y=1
=============santh_transmission : New Iteration===========
Instance : 0

Inside foo before eval.....
a=1
y=1

Inside foo after eval.....
a=1
y=1
=============santh_transmission : New Iteration===========
Instance : 0

Inside foo before eval.....
a=1
y=1

Inside foo after eval.....
a=1
y=1
=============santh_transmission : New Iteration===========
Instance : 0

Inside foo before eval.....
a=1
y=1

Inside foo after eval.....
a=1
y=1
=============santh_transmission : New Iteration===========
Instance : 0

Inside foo before eval.....
a=1
y=1

Inside foo after eval.....
a=1
y=1
=============santh_transmission : New Iteration===========
Instance : 0

Inside foo before eval.....
a=1
y=1

Inside foo after eval.....
a=1
y=1
=============santh_transmission : New Iteration===========
Instance : 0

Inside foo before eval.....
a=1
y=1

Inside foo after eval.....
a=1
y=1
=============santh_transmission : New Iteration===========
Instance : 0

Inside foo before eval.....
a=1
y=1

Inside foo after eval.....
a=1
y=1
=============santh_transmission : New Iteration===========
Instance : 0

Inside foo before eval.....
a=1
y=1

Inside foo after eval.....
a=1
y=1
=============santh_transmission : New Iteration===========
Instance : 0

Inside foo before eval.....
a=1
y=1

Inside foo after eval.....
a=1
y=1
=============santh_transmission : New Iteration===========
Instance : 0

Inside foo before eval.....
a=1
y=1

Inside foo after eval.....
a=1
y=1
=============santh_transmission : New Iteration===========
Instance : 0

Inside foo before eval.....
a=1
y=1

Inside foo after eval.....
a=1
y=1
=============santh_transmission : New Iteration===========
Instance : 0

Inside foo before eval.....
a=1
y=1

Inside foo after eval.....
a=1
y=1
=============santh_transmission : New Iteration===========
Instance : 0

Inside foo before eval.....
a=1
y=1

Inside foo after eval.....
a=1
y=1
=============santh_transmission : New Iteration===========
Instance : 0

Inside foo before eval.....
a=1
y=1

Inside foo after eval.....
a=1
y=1
=============santh_transmission : New Iteration===========
Instance : 0

Inside foo before eval.....
a=1
y=1

Inside foo after eval.....
a=1
y=1
=============santh_transmission : New Iteration===========
Instance : 0

Inside foo before eval.....
a=1
y=1

Inside foo after eval.....
a=1
y=1
=============santh_transmission : New Iteration===========
Instance : 0

Inside foo before eval.....
a=1
y=1

Inside foo after eval.....
a=1
y=1
=============santh_inverter : New Iteration===========
Instance : 0

Inside foo before eval.....
a=1
y=0

Inside foo after eval.....
a=1
y=0
=============santh_transmission : New Iteration===========
Instance : 0

Inside foo before eval.....
a=1
y=1

Inside foo after eval.....
a=1
y=1
=============santh_transmission : New Iteration===========
Instance : 0

Inside foo before eval.....
a=1
y=1

Inside foo after eval.....
a=1
y=1
=============santh_inverter : New Iteration===========
Instance : 0

Inside foo before eval.....
a=1
y=0

Inside foo after eval.....
a=1
y=0
=============santh_inverter : New Iteration===========
Instance : 0

Inside foo before eval.....
a=1
y=0

Inside foo after eval.....
a=0
y=1
=============santh_transmission : New Iteration===========
Instance : 0

Inside foo before eval.....
a=1
y=1

Inside foo after eval.....
a=1
y=1
=============santh_transmission : New Iteration===========
Instance : 0

Inside foo before eval.....
a=1
y=1

Inside foo after eval.....
a=1
y=1
=============santh_transmission : New Iteration===========
Instance : 0

Inside foo before eval.....
a=1
y=1

Inside foo after eval.....
a=0
y=0
=============santh_transmission : New Iteration===========
Instance : 0

Inside foo before eval.....
a=0
y=0

Inside foo after eval.....
a=1
y=1
=============santh_transmission : New Iteration===========
Instance : 0

Inside foo before eval.....
a=1
y=1

Inside foo after eval.....
a=0
y=0
=============santh_transmission : New Iteration===========
Instance : 0

Inside foo before eval.....
a=0
y=0

Inside foo after eval.....
a=1
y=1
=============santh_transmission : New Iteration===========
Instance : 0

Inside foo before eval.....
a=1
y=1

Inside foo after eval.....
a=0
y=0
=============santh_transmission : New Iteration===========
Instance : 0

Inside foo before eval.....
a=0
y=0

Inside foo after eval.....
a=1
y=1
=============santh_transmission : New Iteration===========
Instance : 0

Inside foo before eval.....
a=1
y=1

Inside foo after eval.....
a=0
y=0
=============santh_transmission : New Iteration===========
Instance : 0

Inside foo before eval.....
a=0
y=0

Inside foo after eval.....
a=1
y=1
=============santh_transmission : New Iteration===========
Instance : 0

Inside foo before eval.....
a=1
y=1

Inside foo after eval.....
a=0
y=0
=============santh_transmission : New Iteration===========
Instance : 0

Inside foo before eval.....
a=0
y=0

Inside foo after eval.....
a=1
y=1
=============santh_inverter : New Iteration===========
Instance : 0

Inside foo before eval.....
a=0
y=1

Inside foo after eval.....
a=1
y=0
=============santh_transmission : New Iteration===========
Instance : 0

Inside foo before eval.....
a=1
y=1

Inside foo after eval.....
a=0
y=0
=============santh_transmission : New Iteration===========
Instance : 0

Inside foo before eval.....
a=0
y=0

Inside foo after eval.....
a=1
y=1
=============santh_transmission : New Iteration===========
Instance : 0

Inside foo before eval.....
a=1
y=1

Inside foo after eval.....
a=1
y=1
=============santh_transmission : New Iteration===========
Instance : 0

Inside foo before eval.....
a=1
y=1

Inside foo after eval.....
a=1
y=1
=============santh_transmission : New Iteration===========
Instance : 0

Inside foo before eval.....
a=1
y=1

Inside foo after eval.....
a=1
y=1
=============santh_transmission : New Iteration===========
Instance : 0

Inside foo before eval.....
a=1
y=1

Inside foo after eval.....
a=1
y=1
=============santh_transmission : New Iteration===========
Instance : 0

Inside foo before eval.....
a=1
y=1

Inside foo after eval.....
a=1
y=1
=============santh_transmission : New Iteration===========
Instance : 0

Inside foo before eval.....
a=1
y=1

Inside foo after eval.....
a=1
y=1
=============santh_transmission : New Iteration===========
Instance : 0

Inside foo before eval.....
a=1
y=1

Inside foo after eval.....
a=1
y=1
=============santh_transmission : New Iteration===========
Instance : 0

Inside foo before eval.....
a=1
y=1

Inside foo after eval.....
a=1
y=1
=============santh_transmission : New Iteration===========
Instance : 0

Inside foo before eval.....
a=1
y=1

Inside foo after eval.....
a=1
y=1
=============santh_transmission : New Iteration===========
Instance : 0

Inside foo before eval.....
a=1
y=1

Inside foo after eval.....
a=1
y=1
=============santh_transmission : New Iteration===========
Instance : 0

Inside foo before eval.....
a=1
y=1

Inside foo after eval.....
a=1
y=1
=============santh_transmission : New Iteration===========
Instance : 0

Inside foo before eval.....
a=1
y=1

Inside foo after eval.....
a=1
y=1
=============santh_transmission : New Iteration===========
Instance : 0

Inside foo before eval.....
a=1
y=1

Inside foo after eval.....
a=1
y=1
=============santh_transmission : New Iteration===========
Instance : 0

Inside foo before eval.....
a=1
y=1

Inside foo after eval.....
a=1
y=1
=============santh_transmission : New Iteration===========
Instance : 0

Inside foo before eval.....
a=1
y=1

Inside foo after eval.....
a=1
y=1
=============santh_transmission : New Iteration===========
Instance : 0

Inside foo before eval.....
a=1
y=1

Inside foo after eval.....
a=1
y=1
=============santh_transmission : New Iteration===========
Instance : 0

Inside foo before eval.....
a=1
y=1

Inside foo after eval.....
a=1
y=1
=============santh_transmission : New Iteration===========
Instance : 0

Inside foo before eval.....
a=1
y=1

Inside foo after eval.....
a=1
y=1
=============santh_transmission : New Iteration===========
Instance : 0

Inside foo before eval.....
a=1
y=1

Inside foo after eval.....
a=1
y=1
=============santh_transmission : New Iteration===========
Instance : 0

Inside foo before eval.....
a=1
y=1

Inside foo after eval.....
a=1
y=1
=============santh_transmission : New Iteration===========
Instance : 0

Inside foo before eval.....
a=1
y=1

Inside foo after eval.....
a=1
y=1
=============santh_transmission : New Iteration===========
Instance : 0

Inside foo before eval.....
a=1
y=1

Inside foo after eval.....
a=1
y=1
=============santh_transmission : New Iteration===========
Instance : 0

Inside foo before eval.....
a=1
y=1

Inside foo after eval.....
a=1
y=1
=============santh_transmission : New Iteration===========
Instance : 0

Inside foo before eval.....
a=1
y=1

Inside foo after eval.....
a=1
y=1
=============santh_transmission : New Iteration===========
Instance : 0

Inside foo before eval.....
a=1
y=1

Inside foo after eval.....
a=1
y=1
=============santh_transmission : New Iteration===========
Instance : 0

Inside foo before eval.....
a=1
y=1

Inside foo after eval.....
a=1
y=1
=============santh_transmission : New Iteration===========
Instance : 0

Inside foo before eval.....
a=1
y=1

Inside foo after eval.....
a=1
y=1
=============santh_transmission : New Iteration===========
Instance : 0

Inside foo before eval.....
a=1
y=1

Inside foo after eval.....
a=1
y=1
=============santh_transmission : New Iteration===========
Instance : 0

Inside foo before eval.....
a=1
y=1

Inside foo after eval.....
a=1
y=1
=============santh_transmission : New Iteration===========
Instance : 0

Inside foo before eval.....
a=1
y=1

Inside foo after eval.....
a=1
y=1
=============santh_transmission : New Iteration===========
Instance : 0

Inside foo before eval.....
a=1
y=1

Inside foo after eval.....
a=1
y=1
=============santh_transmission : New Iteration===========
Instance : 0

Inside foo before eval.....
a=1
y=1

Inside foo after eval.....
a=1
y=1
=============santh_transmission : New Iteration===========
Instance : 0

Inside foo before eval.....
a=1
y=1

Inside foo after eval.....
a=1
y=1
=============santh_transmission : New Iteration===========
Instance : 0

Inside foo before eval.....
a=1
y=1

Inside foo after eval.....
a=1
y=1
=============santh_transmission : New Iteration===========
Instance : 0

Inside foo before eval.....
a=1
y=1

Inside foo after eval.....
a=1
y=1
=============santh_transmission : New Iteration===========
Instance : 0

Inside foo before eval.....
a=1
y=1

Inside foo after eval.....
a=1
y=1
=============santh_transmission : New Iteration===========
Instance : 0

Inside foo before eval.....
a=1
y=1

Inside foo after eval.....
a=1
y=1
=============santh_transmission : New Iteration===========
Instance : 0

Inside foo before eval.....
a=1
y=1

Inside foo after eval.....
a=1
y=1
=============santh_transmission : New Iteration===========
Instance : 0

Inside foo before eval.....
a=1
y=1

Inside foo after eval.....
a=1
y=1
=============santh_transmission : New Iteration===========
Instance : 0

Inside foo before eval.....
a=1
y=1

Inside foo after eval.....
a=1
y=1
=============santh_transmission : New Iteration===========
Instance : 0

Inside foo before eval.....
a=1
y=1

Inside foo after eval.....
a=1
y=1
=============santh_inverter : New Iteration===========
Instance : 0

Inside foo before eval.....
a=1
y=0

Inside foo after eval.....
a=1
y=0
=============santh_transmission : New Iteration===========
Instance : 0

Inside foo before eval.....
a=1
y=1

Inside foo after eval.....
a=1
y=1
=============santh_inverter : New Iteration===========
Instance : 0

Inside foo before eval.....
a=1
y=0

Inside foo after eval.....
a=1
y=0
=============santh_inverter : New Iteration===========
Instance : 0

Inside foo before eval.....
a=1
y=0

Inside foo after eval.....
a=0
y=1
=============santh_transmission : New Iteration===========
Instance : 0

Inside foo before eval.....
a=1
y=1

Inside foo after eval.....
a=1
y=1
=============santh_transmission : New Iteration===========
Instance : 0

Inside foo before eval.....
a=1
y=1

Inside foo after eval.....
a=1
y=1
=============santh_inverter : New Iteration===========
Instance : 0

Inside foo before eval.....
a=0
y=1

Inside foo after eval.....
a=1
y=0
=============santh_transmission : New Iteration===========
Instance : 0

Inside foo before eval.....
a=1
y=1

Inside foo after eval.....
a=1
y=1
=============santh_transmission : New Iteration===========
Instance : 0

Inside foo before eval.....
a=1
y=1

Inside foo after eval.....
a=1
y=1
=============santh_transmission : New Iteration===========
Instance : 0

Inside foo before eval.....
a=1
y=1

Inside foo after eval.....
a=1
y=1
=============santh_transmission : New Iteration===========
Instance : 0

Inside foo before eval.....
a=1
y=1

Inside foo after eval.....
a=1
y=1
=============santh_transmission : New Iteration===========
Instance : 0

Inside foo before eval.....
a=1
y=1

Inside foo after eval.....
a=1
y=1
=============santh_transmission : New Iteration===========
Instance : 0

Inside foo before eval.....
a=1
y=1

Inside foo after eval.....
a=1
y=1
=============santh_transmission : New Iteration===========
Instance : 0

Inside foo before eval.....
a=1
y=1

Inside foo after eval.....
a=1
y=1
=============santh_transmission : New Iteration===========
Instance : 0

Inside foo before eval.....
a=1
y=1

Inside foo after eval.....
a=1
y=1
=============santh_transmission : New Iteration===========
Instance : 0

Inside foo before eval.....
a=1
y=1

Inside foo after eval.....
a=1
y=1
=============santh_transmission : New Iteration===========
Instance : 0

Inside foo before eval.....
a=1
y=1

Inside foo after eval.....
a=1
y=1
=============santh_transmission : New Iteration===========
Instance : 0

Inside foo before eval.....
a=1
y=1

Inside foo after eval.....
a=1
y=1
=============santh_transmission : New Iteration===========
Instance : 0

Inside foo before eval.....
a=1
y=1

Inside foo after eval.....
a=1
y=1
=============santh_transmission : New Iteration===========
Instance : 0

Inside foo before eval.....
a=1
y=1

Inside foo after eval.....
a=1
y=1
=============santh_transmission : New Iteration===========
Instance : 0

Inside foo before eval.....
a=1
y=1

Inside foo after eval.....
a=1
y=1
=============santh_transmission : New Iteration===========
Instance : 0

Inside foo before eval.....
a=1
y=1

Inside foo after eval.....
a=1
y=1
=============santh_transmission : New Iteration===========
Instance : 0

Inside foo before eval.....
a=1
y=1

Inside foo after eval.....
a=1
y=1
=============santh_transmission : New Iteration===========
Instance : 0

Inside foo before eval.....
a=1
y=1

Inside foo after eval.....
a=1
y=1
=============santh_transmission : New Iteration===========
Instance : 0

Inside foo before eval.....
a=1
y=1

Inside foo after eval.....
a=1
y=1
=============santh_transmission : New Iteration===========
Instance : 0

Inside foo before eval.....
a=1
y=1

Inside foo after eval.....
a=1
y=1
=============santh_transmission : New Iteration===========
Instance : 0

Inside foo before eval.....
a=1
y=1

Inside foo after eval.....
a=1
y=1
=============santh_transmission : New Iteration===========
Instance : 0

Inside foo before eval.....
a=1
y=1

Inside foo after eval.....
a=1
y=1
=============santh_transmission : New Iteration===========
Instance : 0

Inside foo before eval.....
a=1
y=1

Inside foo after eval.....
a=1
y=1
=============santh_transmission : New Iteration===========
Instance : 0

Inside foo before eval.....
a=1
y=1

Inside foo after eval.....
a=1
y=1
=============santh_transmission : New Iteration===========
Instance : 0

Inside foo before eval.....
a=1
y=1

Inside foo after eval.....
a=1
y=1
=============santh_transmission : New Iteration===========
Instance : 0

Inside foo before eval.....
a=1
y=1

Inside foo after eval.....
a=1
y=1
=============santh_transmission : New Iteration===========
Instance : 0

Inside foo before eval.....
a=1
y=1

Inside foo after eval.....
a=1
y=1
=============santh_inverter : New Iteration===========
Instance : 0

Inside foo before eval.....
a=1
y=0

Inside foo after eval.....
a=1
y=0
=============santh_transmission : New Iteration===========
Instance : 0

Inside foo before eval.....
a=1
y=1

Inside foo after eval.....
a=1
y=1
=============santh_transmission : New Iteration===========
Instance : 0

Inside foo before eval.....
a=1
y=1

Inside foo after eval.....
a=1
y=1
=============santh_inverter : New Iteration===========
Instance : 0

Inside foo before eval.....
a=1
y=0

Inside foo after eval.....
a=1
y=0
=============santh_inverter : New Iteration===========
Instance : 0

Inside foo before eval.....
a=1
y=0

Inside foo after eval.....
a=0
y=1
=============santh_transmission : New Iteration===========
Instance : 0

Inside foo before eval.....
a=1
y=1

Inside foo after eval.....
a=1
y=1
=============santh_transmission : New Iteration===========
Instance : 0

Inside foo before eval.....
a=1
y=1

Inside foo after eval.....
a=1
y=1
=============santh_inverter : New Iteration===========
Instance : 0

Inside foo before eval.....
a=0
y=1

Inside foo after eval.....
a=1
y=0
=============santh_transmission : New Iteration===========
Instance : 0

Inside foo before eval.....
a=1
y=1

Inside foo after eval.....
a=1
y=1
=============santh_transmission : New Iteration===========
Instance : 0

Inside foo before eval.....
a=1
y=1

Inside foo after eval.....
a=1
y=1
=============santh_transmission : New Iteration===========
Instance : 0

Inside foo before eval.....
a=1
y=1

Inside foo after eval.....
a=1
y=1
=============santh_transmission : New Iteration===========
Instance : 0

Inside foo before eval.....
a=1
y=1

Inside foo after eval.....
a=1
y=1
=============santh_transmission : New Iteration===========
Instance : 0

Inside foo before eval.....
a=1
y=1

Inside foo after eval.....
a=1
y=1
=============santh_transmission : New Iteration===========
Instance : 0

Inside foo before eval.....
a=1
y=1

Inside foo after eval.....
a=1
y=1
=============santh_transmission : New Iteration===========
Instance : 0

Inside foo before eval.....
a=1
y=1

Inside foo after eval.....
a=1
y=1
=============santh_transmission : New Iteration===========
Instance : 0

Inside foo before eval.....
a=1
y=1

Inside foo after eval.....
a=1
y=1
=============santh_transmission : New Iteration===========
Instance : 0

Inside foo before eval.....
a=1
y=1

Inside foo after eval.....
a=1
y=1
=============santh_transmission : New Iteration===========
Instance : 0

Inside foo before eval.....
a=1
y=1

Inside foo after eval.....
a=1
y=1
=============santh_transmission : New Iteration===========
Instance : 0

Inside foo before eval.....
a=1
y=1

Inside foo after eval.....
a=1
y=1
=============santh_transmission : New Iteration===========
Instance : 0

Inside foo before eval.....
a=1
y=1

Inside foo after eval.....
a=1
y=1
=============santh_transmission : New Iteration===========
Instance : 0

Inside foo before eval.....
a=1
y=1

Inside foo after eval.....
a=1
y=1
=============santh_transmission : New Iteration===========
Instance : 0

Inside foo before eval.....
a=1
y=1

Inside foo after eval.....
a=1
y=1
=============santh_transmission : New Iteration===========
Instance : 0

Inside foo before eval.....
a=1
y=1

Inside foo after eval.....
a=1
y=1
=============santh_transmission : New Iteration===========
Instance : 0

Inside foo before eval.....
a=1
y=1

Inside foo after eval.....
a=1
y=1
=============santh_transmission : New Iteration===========
Instance : 0

Inside foo before eval.....
a=1
y=1

Inside foo after eval.....
a=1
y=1
=============santh_transmission : New Iteration===========
Instance : 0

Inside foo before eval.....
a=1
y=1

Inside foo after eval.....
a=1
y=1
=============santh_transmission : New Iteration===========
Instance : 0

Inside foo before eval.....
a=1
y=1

Inside foo after eval.....
a=1
y=1
=============santh_transmission : New Iteration===========
Instance : 0

Inside foo before eval.....
a=1
y=1

Inside foo after eval.....
a=1
y=1
=============santh_transmission : New Iteration===========
Instance : 0

Inside foo before eval.....
a=1
y=1

Inside foo after eval.....
a=1
y=1
=============santh_transmission : New Iteration===========
Instance : 0

Inside foo before eval.....
a=1
y=1

Inside foo after eval.....
a=1
y=1
=============santh_transmission : New Iteration===========
Instance : 0

Inside foo before eval.....
a=1
y=1

Inside foo after eval.....
a=1
y=1
=============santh_transmission : New Iteration===========
Instance : 0

Inside foo before eval.....
a=1
y=1

Inside foo after eval.....
a=1
y=1
=============santh_transmission : New Iteration===========
Instance : 0

Inside foo before eval.....
a=1
y=1

Inside foo after eval.....
a=1
y=1
=============santh_transmission : New Iteration===========
Instance : 0

Inside foo before eval.....
a=1
y=1

Inside foo after eval.....
a=1
y=1
=============santh_inverter : New Iteration===========
Instance : 0

Inside foo before eval.....
a=1
y=0

Inside foo after eval.....
a=1
y=0
=============santh_transmission : New Iteration===========
Instance : 0

Inside foo before eval.....
a=1
y=1

Inside foo after eval.....
a=1
y=1
=============santh_transmission : New Iteration===========
Instance : 0

Inside foo before eval.....
a=1
y=1

Inside foo after eval.....
a=1
y=1
=============santh_inverter : New Iteration===========
Instance : 0

Inside foo before eval.....
a=1
y=0

Inside foo after eval.....
a=1
y=0
=============santh_inverter : New Iteration===========
Instance : 0

Inside foo before eval.....
a=1
y=0

Inside foo after eval.....
a=0
y=1
=============santh_transmission : New Iteration===========
Instance : 0

Inside foo before eval.....
a=1
y=1

Inside foo after eval.....
a=1
y=1
=============santh_transmission : New Iteration===========
Instance : 0

Inside foo before eval.....
a=1
y=1

Inside foo after eval.....
a=1
y=1

No. of Data Rows : 747
ERROR: (internal)  This operation is not defined for display type PrinterOnly.
Can't open viewport for graphics.
ERROR: (internal)  This operation is not defined for display type PrinterOnly.
Can't open viewport for graphics.
ERROR: (internal)  This operation is not defined for display type PrinterOnly.
Can't open viewport for graphics.
ERROR: (internal)  This operation is not defined for display type PrinterOnly.
Can't open viewport for graphics.
binary raw file "/home/santhosh.ldc20/eSim-Workspace/DFF/DFF.raw"
Reducing trtol to 1 for xspice 'A' devices
Doing analysis at TEMP = 27.000000 and TNOM = 27.000000

Warning: include: has no value, DC 0 assumed
Warning: v1: no DC value, transient time 0 value used
Warning: v2: no DC value, transient time 0 value used
No. of Data Columns : 26  
=============santh_inverter : New Iteration===========
Instance : 1

Inside foo before eval.....
a=0
y=0

Inside foo after eval.....
a=0
y=1
=============santh_transmission : New Iteration===========
Instance : 1

Inside foo before eval.....
a=0
y=0

Inside foo after eval.....
a=0
y=0
=============santh_inverter : New Iteration===========
Instance : 1

Inside foo before eval.....
a=0
y=1

Inside foo after eval.....
a=0
y=1
=============santh_transmission : New Iteration===========
Instance : 1

Inside foo before eval.....
a=0
y=0

Inside foo after eval.....
a=0
y=0
=============santh_transmission : New Iteration===========
Instance : 1

Inside foo before eval.....
a=0
y=0

Inside foo after eval.....
a=1
y=1
=============santh_inverter : New Iteration===========
Instance : 1

Inside foo before eval.....
a=0
y=1

Inside foo after eval.....
a=1
y=0
=============santh_transmission : New Iteration===========
Instance : 1

Inside foo before eval.....
a=1
y=1

Inside foo after eval.....
a=1
y=1
=============santh_transmission : New Iteration===========
Instance : 1

Inside foo before eval.....
a=1
y=1

Inside foo after eval.....
a=1
y=1
=============santh_transmission : New Iteration===========
Instance : 1

Inside foo before eval.....
a=1
y=1

Inside foo after eval.....
a=1
y=1
=============santh_transmission : New Iteration===========
Instance : 1

Inside foo before eval.....
a=1
y=1

Inside foo after eval.....
a=1
y=1
=============santh_transmission : New Iteration===========
Instance : 1

Inside foo before eval.....
a=1
y=1

Inside foo after eval.....
a=1
y=1
=============santh_transmission : New Iteration===========
Instance : 1

Inside foo before eval.....
a=1
y=1

Inside foo after eval.....
a=1
y=1
=============santh_transmission : New Iteration===========
Instance : 1

Inside foo before eval.....
a=1
y=1

Inside foo after eval.....
a=1
y=1
=============santh_transmission : New Iteration===========
Instance : 1

Inside foo before eval.....
a=1
y=1

Inside foo after eval.....
a=1
y=1
=============santh_transmission : New Iteration===========
Instance : 1

Inside foo before eval.....
a=1
y=1

Inside foo after eval.....
a=1
y=1
=============santh_transmission : New Iteration===========
Instance : 1

Inside foo before eval.....
a=1
y=1

Inside foo after eval.....
a=1
y=1
=============santh_transmission : New Iteration===========
Instance : 1

Inside foo before eval.....
a=1
y=1

Inside foo after eval.....
a=1
y=1
=============santh_transmission : New Iteration===========
Instance : 1

Inside foo before eval.....
a=1
y=1

Inside foo after eval.....
a=1
y=1
=============santh_transmission : New Iteration===========
Instance : 1

Inside foo before eval.....
a=1
y=1

Inside foo after eval.....
a=1
y=1
=============santh_transmission : New Iteration===========
Instance : 1

Inside foo before eval.....
a=1
y=1

Inside foo after eval.....
a=1
y=1
=============santh_transmission : New Iteration===========
Instance : 1

Inside foo before eval.....
a=1
y=1

Inside foo after eval.....
a=1
y=1
=============santh_transmission : New Iteration===========
Instance : 1

Inside foo before eval.....
a=1
y=1

Inside foo after eval.....
a=1
y=1
=============santh_transmission : New Iteration===========
Instance : 1

Inside foo before eval.....
a=1
y=1

Inside foo after eval.....
a=1
y=1
=============santh_transmission : New Iteration===========
Instance : 1

Inside foo before eval.....
a=1
y=1

Inside foo after eval.....
a=1
y=1
=============santh_transmission : New Iteration===========
Instance : 1

Inside foo before eval.....
a=1
y=1

Inside foo after eval.....
a=1
y=1
=============santh_transmission : New Iteration===========
Instance : 1

Inside foo before eval.....
a=1
y=1

Inside foo after eval.....
a=1
y=1
=============santh_transmission : New Iteration===========
Instance : 1

Inside foo before eval.....
a=1
y=1

Inside foo after eval.....
a=1
y=1
=============santh_transmission : New Iteration===========
Instance : 1

Inside foo before eval.....
a=1
y=1

Inside foo after eval.....
a=1
y=1
=============santh_transmission : New Iteration===========
Instance : 1

Inside foo before eval.....
a=1
y=1

Inside foo after eval.....
a=1
y=1
=============santh_transmission : New Iteration===========
Instance : 1

Inside foo before eval.....
a=1
y=1

Inside foo after eval.....
a=1
y=1
=============santh_transmission : New Iteration===========
Instance : 1

Inside foo before eval.....
a=1
y=1

Inside foo after eval.....
a=1
y=1
=============santh_transmission : New Iteration===========
Instance : 1

Inside foo before eval.....
a=1
y=1

Inside foo after eval.....
a=1
y=1
=============santh_inverter : New Iteration===========
Instance : 1

Inside foo before eval.....
a=1
y=0

Inside foo after eval.....
a=1
y=0
=============santh_transmission : New Iteration===========
Instance : 1

Inside foo before eval.....
a=1
y=1

Inside foo after eval.....
a=1
y=1
=============santh_transmission : New Iteration===========
Instance : 1

Inside foo before eval.....
a=1
y=1

Inside foo after eval.....
a=1
y=1
=============santh_inverter : New Iteration===========
Instance : 1

Inside foo before eval.....
a=1
y=0

Inside foo after eval.....
a=1
y=0
=============santh_inverter : New Iteration===========
Instance : 1

Inside foo before eval.....
a=1
y=0

Inside foo after eval.....
a=0
y=1
=============santh_transmission : New Iteration===========
Instance : 1

Inside foo before eval.....
a=1
y=1

Inside foo after eval.....
a=1
y=1
=============santh_transmission : New Iteration===========
Instance : 1

Inside foo before eval.....
a=1
y=1

Inside foo after eval.....
a=1
y=1
=============santh_transmission : New Iteration===========
Instance : 1

Inside foo before eval.....
a=1
y=1

Inside foo after eval.....
a=0
y=0
=============santh_transmission : New Iteration===========
Instance : 1

Inside foo before eval.....
a=0
y=0

Inside foo after eval.....
a=1
y=1
=============santh_transmission : New Iteration===========
Instance : 1

Inside foo before eval.....
a=1
y=1

Inside foo after eval.....
a=0
y=0
=============santh_transmission : New Iteration===========
Instance : 1

Inside foo before eval.....
a=0
y=0

Inside foo after eval.....
a=1
y=1
=============santh_transmission : New Iteration===========
Instance : 1

Inside foo before eval.....
a=1
y=1

Inside foo after eval.....
a=0
y=0
=============santh_transmission : New Iteration===========
Instance : 1

Inside foo before eval.....
a=0
y=0

Inside foo after eval.....
a=1
y=1
=============santh_transmission : New Iteration===========
Instance : 1

Inside foo before eval.....
a=1
y=1

Inside foo after eval.....
a=0
y=0
=============santh_transmission : New Iteration===========
Instance : 1

Inside foo before eval.....
a=0
y=0

Inside foo after eval.....
a=1
y=1
=============santh_transmission : New Iteration===========
Instance : 1

Inside foo before eval.....
a=1
y=1

Inside foo after eval.....
a=0
y=0
=============santh_transmission : New Iteration===========
Instance : 1

Inside foo before eval.....
a=0
y=0

Inside foo after eval.....
a=1
y=1
=============santh_inverter : New Iteration===========
Instance : 1

Inside foo before eval.....
a=0
y=1

Inside foo after eval.....
a=1
y=0
=============santh_transmission : New Iteration===========
Instance : 1

Inside foo before eval.....
a=1
y=1

Inside foo after eval.....
a=0
y=0
=============santh_transmission : New Iteration===========
Instance : 1

Inside foo before eval.....
a=0
y=0

Inside foo after eval.....
a=1
y=1
=============santh_transmission : New Iteration===========
Instance : 1

Inside foo before eval.....
a=1
y=1

Inside foo after eval.....
a=1
y=1
=============santh_transmission : New Iteration===========
Instance : 1

Inside foo before eval.....
a=1
y=1

Inside foo after eval.....
a=1
y=1
=============santh_transmission : New Iteration===========
Instance : 1

Inside foo before eval.....
a=1
y=1

Inside foo after eval.....
a=1
y=1
=============santh_transmission : New Iteration===========
Instance : 1

Inside foo before eval.....
a=1
y=1

Inside foo after eval.....
a=1
y=1
=============santh_transmission : New Iteration===========
Instance : 1

Inside foo before eval.....
a=1
y=1

Inside foo after eval.....
a=1
y=1
=============santh_transmission : New Iteration===========
Instance : 1

Inside foo before eval.....
a=1
y=1

Inside foo after eval.....
a=1
y=1
=============santh_transmission : New Iteration===========
Instance : 1

Inside foo before eval.....
a=1
y=1

Inside foo after eval.....
a=1
y=1
=============santh_transmission : New Iteration===========
Instance : 1

Inside foo before eval.....
a=1
y=1

Inside foo after eval.....
a=1
y=1
=============santh_transmission : New Iteration===========
Instance : 1

Inside foo before eval.....
a=1
y=1

Inside foo after eval.....
a=1
y=1
=============santh_transmission : New Iteration===========
Instance : 1

Inside foo before eval.....
a=1
y=1

Inside foo after eval.....
a=1
y=1
=============santh_transmission : New Iteration===========
Instance : 1

Inside foo before eval.....
a=1
y=1

Inside foo after eval.....
a=1
y=1
=============santh_transmission : New Iteration===========
Instance : 1

Inside foo before eval.....
a=1
y=1

Inside foo after eval.....
a=1
y=1
=============santh_transmission : New Iteration===========
Instance : 1

Inside foo before eval.....
a=1
y=1

Inside foo after eval.....
a=1
y=1
=============santh_transmission : New Iteration===========
Instance : 1

Inside foo before eval.....
a=1
y=1

Inside foo after eval.....
a=1
y=1
=============santh_transmission : New Iteration===========
Instance : 1

Inside foo before eval.....
a=1
y=1

Inside foo after eval.....
a=1
y=1
=============santh_transmission : New Iteration===========
Instance : 1

Inside foo before eval.....
a=1
y=1

Inside foo after eval.....
a=1
y=1
=============santh_transmission : New Iteration===========
Instance : 1

Inside foo before eval.....
a=1
y=1

Inside foo after eval.....
a=1
y=1
=============santh_transmission : New Iteration===========
Instance : 1

Inside foo before eval.....
a=1
y=1

Inside foo after eval.....
a=1
y=1
=============santh_transmission : New Iteration===========
Instance : 1

Inside foo before eval.....
a=1
y=1

Inside foo after eval.....
a=1
y=1
=============santh_transmission : New Iteration===========
Instance : 1

Inside foo before eval.....
a=1
y=1

Inside foo after eval.....
a=1
y=1
=============santh_transmission : New Iteration===========
Instance : 1

Inside foo before eval.....
a=1
y=1

Inside foo after eval.....
a=1
y=1
=============santh_transmission : New Iteration===========
Instance : 1

Inside foo before eval.....
a=1
y=1

Inside foo after eval.....
a=1
y=1
=============santh_transmission : New Iteration===========
Instance : 1

Inside foo before eval.....
a=1
y=1

Inside foo after eval.....
a=1
y=1
=============santh_transmission : New Iteration===========
Instance : 1

Inside foo before eval.....
a=1
y=1

Inside foo after eval.....
a=1
y=1
=============santh_transmission : New Iteration===========
Instance : 1

Inside foo before eval.....
a=1
y=1

Inside foo after eval.....
a=1
y=1
=============santh_transmission : New Iteration===========
Instance : 1

Inside foo before eval.....
a=1
y=1

Inside foo after eval.....
a=1
y=1
=============santh_transmission : New Iteration===========
Instance : 1

Inside foo before eval.....
a=1
y=1

Inside foo after eval.....
a=1
y=1
=============santh_transmission : New Iteration===========
Instance : 1

Inside foo before eval.....
a=1
y=1

Inside foo after eval.....
a=1
y=1
=============santh_transmission : New Iteration===========
Instance : 1

Inside foo before eval.....
a=1
y=1

Inside foo after eval.....
a=1
y=1
=============santh_transmission : New Iteration===========
Instance : 1

Inside foo before eval.....
a=1
y=1

Inside foo after eval.....
a=1
y=1
=============santh_transmission : New Iteration===========
Instance : 1

Inside foo before eval.....
a=1
y=1

Inside foo after eval.....
a=1
y=1
=============santh_transmission : New Iteration===========
Instance : 1

Inside foo before eval.....
a=1
y=1

Inside foo after eval.....
a=1
y=1
=============santh_transmission : New Iteration===========
Instance : 1

Inside foo before eval.....
a=1
y=1

Inside foo after eval.....
a=1
y=1
=============santh_transmission : New Iteration===========
Instance : 1

Inside foo before eval.....
a=1
y=1

Inside foo after eval.....
a=1
y=1
=============santh_transmission : New Iteration===========
Instance : 1

Inside foo before eval.....
a=1
y=1

Inside foo after eval.....
a=1
y=1
=============santh_transmission : New Iteration===========
Instance : 1

Inside foo before eval.....
a=1
y=1

Inside foo after eval.....
a=1
y=1
=============santh_transmission : New Iteration===========
Instance : 1

Inside foo before eval.....
a=1
y=1

Inside foo after eval.....
a=1
y=1
=============santh_transmission : New Iteration===========
Instance : 1

Inside foo before eval.....
a=1
y=1

Inside foo after eval.....
a=1
y=1
=============santh_transmission : New Iteration===========
Instance : 1

Inside foo before eval.....
a=1
y=1

Inside foo after eval.....
a=1
y=1
=============santh_transmission : New Iteration===========
Instance : 1

Inside foo before eval.....
a=1
y=1

Inside foo after eval.....
a=1
y=1
=============santh_inverter : New Iteration===========
Instance : 1

Inside foo before eval.....
a=1
y=0

Inside foo after eval.....
a=1
y=0
=============santh_transmission : New Iteration===========
Instance : 1

Inside foo before eval.....
a=1
y=1

Inside foo after eval.....
a=1
y=1
=============santh_transmission : New Iteration===========
Instance : 1

Inside foo before eval.....
a=1
y=1

Inside foo after eval.....
a=1
y=1
=============santh_inverter : New Iteration===========
Instance : 1

Inside foo before eval.....
a=1
y=0

Inside foo after eval.....
a=1
y=0
=============santh_inverter : New Iteration===========
Instance : 1

Inside foo before eval.....
a=1
y=0

Inside foo after eval.....
a=0
y=1
=============santh_transmission : New Iteration===========
Instance : 1

Inside foo before eval.....
a=1
y=1

Inside foo after eval.....
a=1
y=1
=============santh_transmission : New Iteration===========
Instance : 1

Inside foo before eval.....
a=1
y=1

Inside foo after eval.....
a=1
y=1
=============santh_transmission : New Iteration===========
Instance : 1

Inside foo before eval.....
a=1
y=1

Inside foo after eval.....
a=0
y=0
=============santh_transmission : New Iteration===========
Instance : 1

Inside foo before eval.....
a=0
y=0

Inside foo after eval.....
a=1
y=1
=============santh_transmission : New Iteration===========
Instance : 1

Inside foo before eval.....
a=1
y=1

Inside foo after eval.....
a=0
y=0
=============santh_transmission : New Iteration===========
Instance : 1

Inside foo before eval.....
a=0
y=0

Inside foo after eval.....
a=1
y=1
=============santh_transmission : New Iteration===========
Instance : 1

Inside foo before eval.....
a=1
y=1

Inside foo after eval.....
a=0
y=0
=============santh_transmission : New Iteration===========
Instance : 1

Inside foo before eval.....
a=0
y=0

Inside foo after eval.....
a=1
y=1
=============santh_transmission : New Iteration===========
Instance : 1

Inside foo before eval.....
a=1
y=1

Inside foo after eval.....
a=0
y=0
=============santh_transmission : New Iteration===========
Instance : 1

Inside foo before eval.....
a=0
y=0

Inside foo after eval.....
a=1
y=1
=============santh_transmission : New Iteration===========
Instance : 1

Inside foo before eval.....
a=1
y=1

Inside foo after eval.....
a=0
y=0
=============santh_transmission : New Iteration===========
Instance : 1

Inside foo before eval.....
a=0
y=0

Inside foo after eval.....
a=1
y=1
=============santh_inverter : New Iteration===========
Instance : 1

Inside foo before eval.....
a=0
y=1

Inside foo after eval.....
a=1
y=0
=============santh_transmission : New Iteration===========
Instance : 1

Inside foo before eval.....
a=1
y=1

Inside foo after eval.....
a=0
y=0
=============santh_transmission : New Iteration===========
Instance : 1

Inside foo before eval.....
a=0
y=0

Inside foo after eval.....
a=1
y=1
=============santh_transmission : New Iteration===========
Instance : 1

Inside foo before eval.....
a=1
y=1

Inside foo after eval.....
a=1
y=1
=============santh_transmission : New Iteration===========
Instance : 1

Inside foo before eval.....
a=1
y=1

Inside foo after eval.....
a=1
y=1
=============santh_transmission : New Iteration===========
Instance : 1

Inside foo before eval.....
a=1
y=1

Inside foo after eval.....
a=1
y=1
=============santh_transmission : New Iteration===========
Instance : 1

Inside foo before eval.....
a=1
y=1

Inside foo after eval.....
a=1
y=1
=============santh_transmission : New Iteration===========
Instance : 1

Inside foo before eval.....
a=1
y=1

Inside foo after eval.....
a=1
y=1
=============santh_transmission : New Iteration===========
Instance : 1

Inside foo before eval.....
a=1
y=1

Inside foo after eval.....
a=1
y=1
=============santh_transmission : New Iteration===========
Instance : 1

Inside foo before eval.....
a=1
y=1

Inside foo after eval.....
a=1
y=1
=============santh_transmission : New Iteration===========
Instance : 1

Inside foo before eval.....
a=1
y=1

Inside foo after eval.....
a=1
y=1
=============santh_transmission : New Iteration===========
Instance : 1

Inside foo before eval.....
a=1
y=1

Inside foo after eval.....
a=1
y=1
=============santh_transmission : New Iteration===========
Instance : 1

Inside foo before eval.....
a=1
y=1

Inside foo after eval.....
a=1
y=1
=============santh_transmission : New Iteration===========
Instance : 1

Inside foo before eval.....
a=1
y=1

Inside foo after eval.....
a=1
y=1
=============santh_transmission : New Iteration===========
Instance : 1

Inside foo before eval.....
a=1
y=1

Inside foo after eval.....
a=1
y=1
=============santh_transmission : New Iteration===========
Instance : 1

Inside foo before eval.....
a=1
y=1

Inside foo after eval.....
a=1
y=1
=============santh_transmission : New Iteration===========
Instance : 1

Inside foo before eval.....
a=1
y=1

Inside foo after eval.....
a=1
y=1
=============santh_transmission : New Iteration===========
Instance : 1

Inside foo before eval.....
a=1
y=1

Inside foo after eval.....
a=1
y=1
=============santh_transmission : New Iteration===========
Instance : 1

Inside foo before eval.....
a=1
y=1

Inside foo after eval.....
a=1
y=1
=============santh_transmission : New Iteration===========
Instance : 1

Inside foo before eval.....
a=1
y=1

Inside foo after eval.....
a=1
y=1
=============santh_transmission : New Iteration===========
Instance : 1

Inside foo before eval.....
a=1
y=1

Inside foo after eval.....
a=1
y=1
=============santh_transmission : New Iteration===========
Instance : 1

Inside foo before eval.....
a=1
y=1

Inside foo after eval.....
a=1
y=1
=============santh_transmission : New Iteration===========
Instance : 1

Inside foo before eval.....
a=1
y=1

Inside foo after eval.....
a=1
y=1
=============santh_transmission : New Iteration===========
Instance : 1

Inside foo before eval.....
a=1
y=1

Inside foo after eval.....
a=1
y=1
=============santh_transmission : New Iteration===========
Instance : 1

Inside foo before eval.....
a=1
y=1

Inside foo after eval.....
a=1
y=1
=============santh_transmission : New Iteration===========
Instance : 1

Inside foo before eval.....
a=1
y=1

Inside foo after eval.....
a=1
y=1
=============santh_transmission : New Iteration===========
Instance : 1

Inside foo before eval.....
a=1
y=1

Inside foo after eval.....
a=1
y=1
=============santh_transmission : New Iteration===========
Instance : 1

Inside foo before eval.....
a=1
y=1

Inside foo after eval.....
a=1
y=1
=============santh_transmission : New Iteration===========
Instance : 1

Inside foo before eval.....
a=1
y=1

Inside foo after eval.....
a=1
y=1
=============santh_transmission : New Iteration===========
Instance : 1

Inside foo before eval.....
a=1
y=1

Inside foo after eval.....
a=1
y=1
=============santh_transmission : New Iteration===========
Instance : 1

Inside foo before eval.....
a=1
y=1

Inside foo after eval.....
a=1
y=1
=============santh_transmission : New Iteration===========
Instance : 1

Inside foo before eval.....
a=1
y=1

Inside foo after eval.....
a=1
y=1
=============santh_transmission : New Iteration===========
Instance : 1

Inside foo before eval.....
a=1
y=1

Inside foo after eval.....
a=1
y=1
=============santh_transmission : New Iteration===========
Instance : 1

Inside foo before eval.....
a=1
y=1

Inside foo after eval.....
a=1
y=1
=============santh_transmission : New Iteration===========
Instance : 1

Inside foo before eval.....
a=1
y=1

Inside foo after eval.....
a=1
y=1
=============santh_transmission : New Iteration===========
Instance : 1

Inside foo before eval.....
a=1
y=1

Inside foo after eval.....
a=1
y=1
=============santh_transmission : New Iteration===========
Instance : 1

Inside foo before eval.....
a=1
y=1

Inside foo after eval.....
a=1
y=1
=============santh_transmission : New Iteration===========
Instance : 1

Inside foo before eval.....
a=1
y=1

Inside foo after eval.....
a=1
y=1
=============santh_transmission : New Iteration===========
Instance : 1

Inside foo before eval.....
a=1
y=1

Inside foo after eval.....
a=1
y=1
=============santh_transmission : New Iteration===========
Instance : 1

Inside foo before eval.....
a=1
y=1

Inside foo after eval.....
a=1
y=1
=============santh_transmission : New Iteration===========
Instance : 1

Inside foo before eval.....
a=1
y=1

Inside foo after eval.....
a=1
y=1
=============santh_transmission : New Iteration===========
Instance : 1

Inside foo before eval.....
a=1
y=1

Inside foo after eval.....
a=1
y=1
=============santh_transmission : New Iteration===========
Instance : 1

Inside foo before eval.....
a=1
y=1

Inside foo after eval.....
a=1
y=1
=============santh_transmission : New Iteration===========
Instance : 1

Inside foo before eval.....
a=1
y=1

Inside foo after eval.....
a=1
y=1
=============santh_inverter : New Iteration===========
Instance : 1

Inside foo before eval.....
a=1
y=0

Inside foo after eval.....
a=1
y=0
=============santh_transmission : New Iteration===========
Instance : 1

Inside foo before eval.....
a=1
y=1

Inside foo after eval.....
a=1
y=1
=============santh_inverter : New Iteration===========
Instance : 1

Inside foo before eval.....
a=1
y=0

Inside foo after eval.....
a=1
y=0
=============santh_inverter : New Iteration===========
Instance : 1

Inside foo before eval.....
a=1
y=0

Inside foo after eval.....
a=0
y=1
=============santh_transmission : New Iteration===========
Instance : 1

Inside foo before eval.....
a=1
y=1

Inside foo after eval.....
a=1
y=1
=============santh_transmission : New Iteration===========
Instance : 1

Inside foo before eval.....
a=1
y=1

Inside foo after eval.....
a=1
y=1
=============santh_inverter : New Iteration===========
Instance : 1

Inside foo before eval.....
a=0
y=1

Inside foo after eval.....
a=1
y=0
=============santh_transmission : New Iteration===========
Instance : 1

Inside foo before eval.....
a=1
y=1

Inside foo after eval.....
a=1
y=1
=============santh_transmission : New Iteration===========
Instance : 1

Inside foo before eval.....
a=1
y=1

Inside foo after eval.....
a=1
y=1
=============santh_transmission : New Iteration===========
Instance : 1

Inside foo before eval.....
a=1
y=1

Inside foo after eval.....
a=1
y=1
=============santh_transmission : New Iteration===========
Instance : 1

Inside foo before eval.....
a=1
y=1

Inside foo after eval.....
a=1
y=1
=============santh_transmission : New Iteration===========
Instance : 1

Inside foo before eval.....
a=1
y=1

Inside foo after eval.....
a=1
y=1
=============santh_transmission : New Iteration===========
Instance : 1

Inside foo before eval.....
a=1
y=1

Inside foo after eval.....
a=1
y=1
=============santh_transmission : New Iteration===========
Instance : 1

Inside foo before eval.....
a=1
y=1

Inside foo after eval.....
a=1
y=1
=============santh_transmission : New Iteration===========
Instance : 1

Inside foo before eval.....
a=1
y=1

Inside foo after eval.....
a=1
y=1
=============santh_transmission : New Iteration===========
Instance : 1

Inside foo before eval.....
a=1
y=1

Inside foo after eval.....
a=1
y=1
=============santh_transmission : New Iteration===========
Instance : 1

Inside foo before eval.....
a=1
y=1

Inside foo after eval.....
a=1
y=1
=============santh_transmission : New Iteration===========
Instance : 1

Inside foo before eval.....
a=1
y=1

Inside foo after eval.....
a=1
y=1
=============santh_transmission : New Iteration===========
Instance : 1

Inside foo before eval.....
a=1
y=1

Inside foo after eval.....
a=1
y=1
=============santh_transmission : New Iteration===========
Instance : 1

Inside foo before eval.....
a=1
y=1

Inside foo after eval.....
a=1
y=1
=============santh_transmission : New Iteration===========
Instance : 1

Inside foo before eval.....
a=1
y=1

Inside foo after eval.....
a=1
y=1
=============santh_transmission : New Iteration===========
Instance : 1

Inside foo before eval.....
a=1
y=1

Inside foo after eval.....
a=1
y=1
=============santh_transmission : New Iteration===========
Instance : 1

Inside foo before eval.....
a=1
y=1

Inside foo after eval.....
a=1
y=1
=============santh_transmission : New Iteration===========
Instance : 1

Inside foo before eval.....
a=1
y=1

Inside foo after eval.....
a=1
y=1
=============santh_transmission : New Iteration===========
Instance : 1

Inside foo before eval.....
a=1
y=1

Inside foo after eval.....
a=1
y=1
=============santh_transmission : New Iteration===========
Instance : 1

Inside foo before eval.....
a=1
y=1

Inside foo after eval.....
a=1
y=1
=============santh_transmission : New Iteration===========
Instance : 1

Inside foo before eval.....
a=1
y=1

Inside foo after eval.....
a=1
y=1
=============santh_transmission : New Iteration===========
Instance : 1

Inside foo before eval.....
a=1
y=1

Inside foo after eval.....
a=1
y=1
=============santh_transmission : New Iteration===========
Instance : 1

Inside foo before eval.....
a=1
y=1

Inside foo after eval.....
a=1
y=1
=============santh_transmission : New Iteration===========
Instance : 1

Inside foo before eval.....
a=1
y=1

Inside foo after eval.....
a=1
y=1
=============santh_transmission : New Iteration===========
Instance : 1

Inside foo before eval.....
a=1
y=1

Inside foo after eval.....
a=1
y=1
=============santh_transmission : New Iteration===========
Instance : 1

Inside foo before eval.....
a=1
y=1

Inside foo after eval.....
a=1
y=1
=============santh_transmission : New Iteration===========
Instance : 1

Inside foo before eval.....
a=1
y=1

Inside foo after eval.....
a=1
y=1
=============santh_inverter : New Iteration===========
Instance : 1

Inside foo before eval.....
a=1
y=0

Inside foo after eval.....
a=1
y=0
=============santh_transmission : New Iteration===========
Instance : 1

Inside foo before eval.....
a=1
y=1

Inside foo after eval.....
a=1
y=1
=============santh_transmission : New Iteration===========
Instance : 1

Inside foo before eval.....
a=1
y=1

Inside foo after eval.....
a=1
y=1
=============santh_inverter : New Iteration===========
Instance : 1

Inside foo before eval.....
a=1
y=0

Inside foo after eval.....
a=1
y=0
=============santh_inverter : New Iteration===========
Instance : 1

Inside foo before eval.....
a=1
y=0

Inside foo after eval.....
a=0
y=1
=============santh_transmission : New Iteration===========
Instance : 1

Inside foo before eval.....
a=1
y=1

Inside foo after eval.....
a=1
y=1
=============santh_transmission : New Iteration===========
Instance : 1

Inside foo before eval.....
a=1
y=1

Inside foo after eval.....
a=1
y=1
=============santh_inverter : New Iteration===========
Instance : 1

Inside foo before eval.....
a=0
y=1

Inside foo after eval.....
a=1
y=0
=============santh_transmission : New Iteration===========
Instance : 1

Inside foo before eval.....
a=1
y=1

Inside foo after eval.....
a=1
y=1
=============santh_transmission : New Iteration===========
Instance : 1

Inside foo before eval.....
a=1
y=1

Inside foo after eval.....
a=1
y=1
=============santh_transmission : New Iteration===========
Instance : 1

Inside foo before eval.....
a=1
y=1

Inside foo after eval.....
a=1
y=1
=============santh_transmission : New Iteration===========
Instance : 1

Inside foo before eval.....
a=1
y=1

Inside foo after eval.....
a=1
y=1
=============santh_transmission : New Iteration===========
Instance : 1

Inside foo before eval.....
a=1
y=1

Inside foo after eval.....
a=1
y=1
=============santh_transmission : New Iteration===========
Instance : 1

Inside foo before eval.....
a=1
y=1

Inside foo after eval.....
a=1
y=1
=============santh_transmission : New Iteration===========
Instance : 1

Inside foo before eval.....
a=1
y=1

Inside foo after eval.....
a=1
y=1
=============santh_transmission : New Iteration===========
Instance : 1

Inside foo before eval.....
a=1
y=1

Inside foo after eval.....
a=1
y=1
=============santh_transmission : New Iteration===========
Instance : 1

Inside foo before eval.....
a=1
y=1

Inside foo after eval.....
a=1
y=1
=============santh_transmission : New Iteration===========
Instance : 1

Inside foo before eval.....
a=1
y=1

Inside foo after eval.....
a=1
y=1
=============santh_transmission : New Iteration===========
Instance : 1

Inside foo before eval.....
a=1
y=1

Inside foo after eval.....
a=1
y=1
=============santh_transmission : New Iteration===========
Instance : 1

Inside foo before eval.....
a=1
y=1

Inside foo after eval.....
a=1
y=1
=============santh_transmission : New Iteration===========
Instance : 1

Inside foo before eval.....
a=1
y=1

Inside foo after eval.....
a=1
y=1
=============santh_transmission : New Iteration===========
Instance : 1

Inside foo before eval.....
a=1
y=1

Inside foo after eval.....
a=1
y=1
=============santh_transmission : New Iteration===========
Instance : 1

Inside foo before eval.....
a=1
y=1

Inside foo after eval.....
a=1
y=1
=============santh_transmission : New Iteration===========
Instance : 1

Inside foo before eval.....
a=1
y=1

Inside foo after eval.....
a=1
y=1
=============santh_transmission : New Iteration===========
Instance : 1

Inside foo before eval.....
a=1
y=1

Inside foo after eval.....
a=1
y=1
=============santh_transmission : New Iteration===========
Instance : 1

Inside foo before eval.....
a=1
y=1

Inside foo after eval.....
a=1
y=1
=============santh_transmission : New Iteration===========
Instance : 1

Inside foo before eval.....
a=1
y=1

Inside foo after eval.....
a=1
y=1
=============santh_transmission : New Iteration===========
Instance : 1

Inside foo before eval.....
a=1
y=1

Inside foo after eval.....
a=1
y=1
=============santh_transmission : New Iteration===========
Instance : 1

Inside foo before eval.....
a=1
y=1

Inside foo after eval.....
a=1
y=1
=============santh_transmission : New Iteration===========
Instance : 1

Inside foo before eval.....
a=1
y=1

Inside foo after eval.....
a=1
y=1
=============santh_transmission : New Iteration===========
Instance : 1

Inside foo before eval.....
a=1
y=1

Inside foo after eval.....
a=1
y=1
=============santh_transmission : New Iteration===========
Instance : 1

Inside foo before eval.....
a=1
y=1

Inside foo after eval.....
a=1
y=1
=============santh_transmission : New Iteration===========
Instance : 1

Inside foo before eval.....
a=1
y=1

Inside foo after eval.....
a=1
y=1
=============santh_transmission : New Iteration===========
Instance : 1

Inside foo before eval.....
a=1
y=1

Inside foo after eval.....
a=1
y=1
=============santh_inverter : New Iteration===========
Instance : 1

Inside foo before eval.....
a=1
y=0

Inside foo after eval.....
a=1
y=0
=============santh_transmission : New Iteration===========
Instance : 1

Inside foo before eval.....
a=1
y=1

Inside foo after eval.....
a=1
y=1
=============santh_transmission : New Iteration===========
Instance : 1

Inside foo before eval.....
a=1
y=1

Inside foo after eval.....
a=1
y=1
=============santh_inverter : New Iteration===========
Instance : 1

Inside foo before eval.....
a=1
y=0

Inside foo after eval.....
a=1
y=0
=============santh_inverter : New Iteration===========
Instance : 1

Inside foo before eval.....
a=1
y=0

Inside foo after eval.....
a=0
y=1
=============santh_transmission : New Iteration===========
Instance : 1

Inside foo before eval.....
a=1
y=1

Inside foo after eval.....
a=1
y=1
=============santh_transmission : New Iteration===========
Instance : 1

Inside foo before eval.....
a=1
y=1

Inside foo after eval.....
a=1
y=1

No. of Data Rows : 747

Total analysis time (seconds) = 0.064719

Total CPU time (seconds) = 10.532 

Total DRAM available = 257855.305 MB.
DRAM currently available = 230715.188 MB.
Maximum ngspice program size =  397.551 MB.
Current ngspice program size =  331.410 MB.

Shared ngspice pages =    9.395 MB.
Text (code) pages =    6.285 MB.
Stack = 0 bytes.
Library pages =  325.219 MB.

